6
Lattice="1.0 0.0 0.0 0.0 1.0 0.0 0.0 0.0 1.0" Properties=species:S:1:pos:R:3 pbc="F F F"
Si     -0.57899200       0.99424400       0.00000000 
H     -2.05512800       0.83354100       0.00000000 
Si      0.57899200      -0.99424400       0.00000000 
H      2.05512800      -0.83354100       0.00000000 
Si      0.57899200       2.87790600       0.00000000 
Si     -0.57899200      -2.87790600       0.00000000 
